1 @<TRIPOS>MOLECULE
1 4ll0
1 36 38 1 0 0
1 SMALL
1 AMBER ff14SB
1 
1 
1 @<TRIPOS>ATOM
1       1 CAL       -11.7950  -20.6960   26.8390 C.ar      1 YUN   -0.0880
1       2 CAX       -12.0080  -19.7090   25.8770 C.ar      1 YUN   -0.0129
1       3 BR        -10.8320  -19.5980   24.3920 Br        1 YUN   -0.0871
1       4 CAH       -13.2060  -19.0250   25.8370 C.ar      1 YUN   -0.1180
1       5 CAF       -14.2120  -19.3420   26.7500 C.ar      1 YUN   -0.1130
1       6 CAI       -14.0120  -20.3650   27.6780 C.ar      1 YUN   -0.1560
1       7 CAY       -12.8090  -21.0380   27.7340 C.ar      1 YUN    0.1396
1       8 NAT       -12.5660  -21.8410   28.7720 N.pl3     1 YUN   -0.7283
1       9 C6        -11.3350  -22.2290   29.1100 C.ar      1 YUN    0.6972
1      10 C5        -11.1370  -23.2890   29.9850 C.ar      1 YUN   -0.2626
1      11 CAM       -12.2010  -24.0630   30.4330 C.ar      1 YUN   -0.1310
1      12 N1        -10.2690  -21.6720   28.5170 N.ar      1 YUN   -0.7660
1      13 C2         -9.0390  -22.0830   28.7830 C.ar      1 YUN    0.6659
1      14 N3         -8.8150  -23.0740   29.6230 N.ar      1 YUN   -0.7110
1      15 C4         -9.8310  -23.7060   30.2270 C.ar      1 YUN    0.4126
1      16 CAK        -9.5960  -24.8960   30.9080 C.ar      1 YUN   -0.1543
1      17 CAJ       -10.6630  -25.6730   31.3340 C.ar      1 YUN   -0.1450
1      18 CAZ       -11.9680  -25.2610   31.0990 C.ar      1 YUN    0.0536
1      19 NAS       -12.9800  -25.9830   31.5610 N.am      1 YUN   -0.4701
1      20 CAW       -14.2360  -25.5670   31.4390 C.2       1 YUN    0.6661
1      21 OAC       -14.5550  -24.4510   31.0340 O.2       1 YUN   -0.5961
1      22 CAO       -15.2950  -26.5210   31.9900 C.2       1 YUN   -0.1574
1      23 CAN       -15.5240  -26.2590   33.4780 C.2       1 YUN   -0.0961
1      24 HAL       -10.8402  -21.1981   26.8914 H         1 YUN    0.1680
1      25 HAH       -13.3638  -18.2487   25.1030 H         1 YUN    0.1480
1      26 HAF       -15.1441  -18.7966   26.7387 H         1 YUN    0.1390
1      27 HAI       -14.8066  -20.6324   28.3588 H         1 YUN    0.1370
1      28 HAT       -13.3458  -22.1683   29.3242 H         1 YUN    0.4428
1      29 HAM       -13.2148  -23.7319   30.2628 H         1 YUN    0.1690
1      30 H2         -8.2028  -21.5970   28.3025 H         1 YUN    0.0541
1      31 HAK        -8.5831  -25.2147   31.1049 H         1 YUN    0.1570
1      32 HAJ       -10.4779  -26.6030   31.8510 H         1 YUN    0.1340
1      33 HAS       -12.7924  -26.8659   32.0142 H         1 YUN    0.3185
1      34 HAO3      -16.2300  -26.3731   31.4496 H         1 YUN    0.0762
1      35 HAN1      -16.2809  -26.9462   33.8562 H         1 YUN    0.0450
1      36 HAN2      -14.5914  -26.4114   34.0212 H         1 YUN    0.0450
1 @<TRIPOS>BOND
1      1    1    2 ar
1      2    1    7 ar
1      3    2    3 1
1      4    2    4 ar
1      5    4    5 ar
1      6    5    6 ar
1      7    6    7 ar
1      8    7    8 1
1      9    8    9 1
1     10    9   10 ar
1     11    9   12 ar
1     12   10   11 ar
1     13   10   15 ar
1     14   11   18 ar
1     15   12   13 ar
1     16   13   14 ar
1     17   14   15 ar
1     18   15   16 ar
1     19   16   17 ar
1     20   17   18 ar
1     21   18   19 1
1     22   19   20 am
1     23   20   21 2
1     24   20   22 1
1     25   22   23 1
1     26   24    1 1
1     27   25    4 1
1     28   26    5 1
1     29   27    6 1
1     30   28    8 1
1     31   29   11 1
1     32   30   13 1
1     33   31   16 1
1     34   32   17 1
1     35   33   19 1
1     36   34   22 1
1     37   35   23 1
1     38   36   23 1
1 @<TRIPOS>SUBSTRUCTURE
1      1 YUN     1 RESIDUE           4 A     YUN     0 ROOT
