@<TRIPOS>MOLECULE
4ll0
38 40 1 0 0
SMALL
AMBER ff14SB
@<TRIPOS>ATOM
      1 CAL         3.4866   -6.1207   6.2697 C.ar    1 YUN   -0.0880
      2 CAX         4.0306   -6.3225   7.5380 C.ar    1 YUN   -0.0129
      3 BR         5.1851   -7.8011   7.8228 Br    1 YUN   -0.0871
      4 CAH         3.9810   -5.3179   8.4829 C.ar    1 YUN   -0.1180
      5 CAF         3.4039   -4.0908   8.1554 C.ar    1 YUN   -0.1130
      6 CAI         2.9064   -3.8773   6.8691 C.ar    1 YUN   -0.1560
      7 CAY         2.9365   -4.8852   5.9275 C.ar    1 YUN   0.1396
      8 NAT         2.2500   -4.7302   4.7935 N.pl3    1 YUN   -0.7283
      9 C6         1.9112   -5.7560   4.0105 C.ar    1 YUN   0.6972
      10 C5         1.4764   -5.5454   2.7086 C.ar    1 YUN   -0.2626
      11 CAM         1.5044   -4.2799   2.1344 C.ar    1 YUN   -0.1310
      12 N1         2.0968   -7.0144   4.4349 N.ar    1 YUN   -0.7660
      13 C2         1.8328   -8.0510   3.6550 C.ar    1 YUN   0.6659
      14 N3         1.4007   -7.8864   2.4205 N.ar    1 YUN   -0.7110
      15 C4         1.2259   -6.6589   1.9114 C.ar    1 YUN   0.4126
      16 CAK         1.0122   -6.5024   0.5458 C.ar    1 YUN   -0.1543
      17 CAJ         1.0619   -5.2384   -0.0231 C.ar    1 YUN   -0.1450
      18 CAZ         1.3078   -4.1234   0.7670 C.ar    1 YUN   0.0536
      19 NAS         1.2962   -2.9144   0.2220 N.am    1 YUN   -0.4701
      20 CAW         1.4300   -1.8215   0.9657 C.3    1 YUN   0.6661
      21 OAC         1.4300   -1.8215   2.1951 O.2    1 YUN   -0.5961
      22 CAO         1.4300   -0.5032   0.1929 C.3    1 YUN   -0.1574
      23 CAN         0.0000   0.0000   0.0000 C.3    1 YUN   -0.0961
      24 HAL         3.4913   -6.9249   5.5489 H    1 YUN   0.1680
      25 HAH         4.3867   -5.4808   9.4704 H    1 YUN   0.1480
      26 HAF         3.3423   -3.3072   8.8961 H    1 YUN   0.1390
      27 HAI         2.4939   -2.9139   6.6083 H    1 YUN   0.1370
      28 HAT         1.9757   -3.7983   4.5168 H    1 YUN   0.4428
      29 HAM         1.6799   -3.4130   2.7542 H    1 YUN   0.1690
      30 H2         1.9742   -9.0510   4.0375 H    1 YUN   0.0541
      31 HAK         0.8077   -7.3648   -0.0713 H    1 YUN   0.1570
      32 HAJ         0.9087   -5.1209   -1.0857 H    1 YUN   0.1340
      33 HAS         1.1835   -2.8226   -0.7775 H    1 YUN   0.3185
      34 HAO3         1.2584   0.2403   0.9714 H    1 YUN   0.0762
      35 HAN1         0.4783   0.9398   -0.2761 H    1 YUN   0.0450
      36 HAN2         -0.4783   0.9398   -0.2761 H    1 YUN   0.0450
      37 Hx         1.6016   0.2403   0.9714 H    1 YUN   0.0
      38 Hr         0.0000   0.9000   0.0000 H    1 YUN   0.0
@<TRIPOS>BOND
     1     1     2 ar
     2     1     7 ar
     3     2     3 1
     4     2     4 ar
     5     4     5 ar
     6     5     6 ar
     7     6     7 ar
     8     7     8 1
     9     8     9 1
    10     9    10 ar
    11     9    12 ar
    12    10    11 ar
    13    10    15 ar
    14    11    18 ar
    15    12    13 ar
    16    13    14 ar
    17    14    15 ar
    18    15    16 ar
    19    16    17 ar
    20    17    18 ar
    21    18    19 1
    22    19    20 am
    23    20    21 2
    24    20    22 1
    25    22    23 1
    26    24     1 1
    27    25     4 1
    28    26     5 1
    29    27     6 1
    30    28     8 1
    31    29    11 1
    32    30    13 1
    33    31    16 1
    34    32    17 1
    35    33    19 1
    36    34    22 1
    37    35    23 1
    38    36    23 1
    39    22    37 1
    40    23    38 1
@<TRIPOS>SUBSTRUCTURE
     1 YUN     1 RESIDUE           4 A     YUN     0 ROOT
